PV_Scenarios/PV_combined/scenario_60_combined/PV_combined100per.txt
New PVSystem.PV_1 phases=1 bus1=G2000UI5400_N283699_sec_6.3 kV=0.24 kVA=3.12 irradiance=1 Pmpp=2.6 %cutin=0.1 %cutout=0.1
New PVSystem.PV_2 phases=1 bus1=G2000XF7700_N283582_sec_1.3 kV=0.24 kVA=3.36 irradiance=1 Pmpp=2.8 %cutin=0.1 %cutout=0.1
New PVSystem.PV_3 phases=1 bus1=G2000XJ7800_N283732_sec_2.2 kV=0.24 kVA=4.6722 irradiance=1 Pmpp=3.8935 %cutin=0.1 %cutout=0.1
New PVSystem.PV_4 phases=1 bus1=G2000XN3600_N283894_sec_3.3 kV=0.24 kVA=5.52 irradiance=1 Pmpp=4.6 %cutin=0.1 %cutout=0.1
New PVSystem.PV_5 phases=1 bus1=G2001QN1600_N274550_sec_2.2 kV=0.24 kVA=10.68 irradiance=1 Pmpp=8.9 %cutin=0.1 %cutout=0.1
New PVSystem.PV_6 phases=1 bus1=G2001RG8800_N274396_sec_1.2 kV=0.24 kVA=9.12 irradiance=1 Pmpp=7.6 %cutin=0.1 %cutout=0.1
New PVSystem.PV_7 phases=1 bus1=G2001SJ5400_N274470_sec_5.1 kV=0.24 kVA=9.36 irradiance=1 Pmpp=7.8 %cutin=0.1 %cutout=0.1
New PVSystem.PV_8 phases=1 bus1=G2001UE1100_N284038_sec_3.3 kV=0.24 kVA=4.505 irradiance=1 Pmpp=3.7542 %cutin=0.1 %cutout=0.1
New PVSystem.PV_9 phases=1 bus1=G2001UL2700_N284245_sec_1.2 kV=0.24 kVA=5.16 irradiance=1 Pmpp=4.3 %cutin=0.1 %cutout=0.1
New PVSystem.PV_10 phases=1 bus1=G2001VA3800_N283914_sec_5.3 kV=0.24 kVA=3 irradiance=1 Pmpp=2.5 %cutin=0.1 %cutout=0.1
New PVSystem.PV_11 phases=1 bus1=G2001VG6500_N284122_sec_1.3 kV=0.24 kVA=5.88 irradiance=1 Pmpp=4.9 %cutin=0.1 %cutout=0.1
New PVSystem.PV_12 phases=1 bus1=G2001VH9900_N284172_sec_4.3 kV=0.24 kVA=6.6 irradiance=1 Pmpp=5.5 %cutin=0.1 %cutout=0.1
New PVSystem.PV_13 phases=1 bus1=G2001WE0200_N284057_sec_3.3 kV=0.24 kVA=5.88 irradiance=1 Pmpp=4.9 %cutin=0.1 %cutout=0.1
New PVSystem.PV_14 phases=1 bus1=G2001WL3500_N284250_sec_2.2 kV=0.24 kVA=5.76 irradiance=1 Pmpp=4.8 %cutin=0.1 %cutout=0.1
New PVSystem.PV_15 phases=1 bus1=G2001WL3500_N284250_sec_3.2 kV=0.24 kVA=12.6 irradiance=1 Pmpp=10.5 %cutin=0.1 %cutout=0.1
New PVSystem.PV_16 phases=1 bus1=G2100AG2100_N283585_sec_5.3 kV=0.24 kVA=2.28 irradiance=1 Pmpp=1.9 %cutin=0.1 %cutout=0.1
New PVSystem.PV_17 phases=1 bus1=G2100CH7400_N283632_sec_9.3 kV=0.24 kVA=2.28 irradiance=1 Pmpp=1.9 %cutin=0.1 %cutout=0.1
New PVSystem.PV_18 phases=1 bus1=G2100CI1500_N283687_sec_4.2 kV=0.24 kVA=12.12 irradiance=1 Pmpp=10.1 %cutin=0.1 %cutout=0.1
New PVSystem.PV_19 phases=1 bus1=G2100CM0100_N283805_sec_3.1 kV=0.24 kVA=5.9976 irradiance=1 Pmpp=4.998 %cutin=0.1 %cutout=0.1
New PVSystem.PV_20 phases=1 bus1=G2100CN4900_N283858_sec_7.3 kV=0.24 kVA=2.16 irradiance=1 Pmpp=1.8 %cutin=0.1 %cutout=0.1
New PVSystem.PV_21 phases=1 bus1=G2100CN4900_N283858_sec_11.3 kV=0.24 kVA=2.52 irradiance=1 Pmpp=2.1 %cutin=0.1 %cutout=0.1
New PVSystem.PV_22 phases=1 bus1=G2100DG1300_N283601_sec_13.3 kV=0.24 kVA=2.28 irradiance=1 Pmpp=1.9 %cutin=0.1 %cutout=0.1
New PVSystem.PV_23 phases=1 bus1=G2100DG6300_N283589_sec_6.3 kV=0.24 kVA=1.56 irradiance=1 Pmpp=1.3 %cutin=0.1 %cutout=0.1
New PVSystem.PV_24 phases=1 bus1=G2100DH9500_N292300_sec_2.3 kV=0.24 kVA=3.12 irradiance=1 Pmpp=2.6 %cutin=0.1 %cutout=0.1
New PVSystem.PV_25 phases=1 bus1=G2100DN3000_N283838_sec_8.3 kV=0.24 kVA=3.96 irradiance=1 Pmpp=3.3 %cutin=0.1 %cutout=0.1
New PVSystem.PV_26 phases=1 bus1=G2100DN4800_N283861_sec_10.3 kV=0.24 kVA=0.72 irradiance=1 Pmpp=0.6 %cutin=0.1 %cutout=0.1
New PVSystem.PV_27 phases=1 bus1=G2100DN4800_N283861_sec_14.3 kV=0.24 kVA=2.52 irradiance=1 Pmpp=2.1 %cutin=0.1 %cutout=0.1
New PVSystem.PV_28 phases=1 bus1=G2100DO7000_N283865_sec_5.3 kV=0.24 kVA=1.68 irradiance=1 Pmpp=1.4 %cutin=0.1 %cutout=0.1
New PVSystem.PV_29 phases=3 conn = delta bus1=G2100EG8700_N292270_sec_1.1.2.3 kV=0.48 kVA=30 irradiance=1 Pmpp=25 %cutin=0.1 %cutout=0.1
New PVSystem.PV_30 phases=1 bus1=G2100EH3700_N292308_sec_6.1 kV=0.24 kVA=3.12 irradiance=1 Pmpp=2.6 %cutin=0.1 %cutout=0.1
New PVSystem.PV_31 phases=1 bus1=G2100EK2800_N292334_sec_1.2 kV=0.24 kVA=4.8024 irradiance=1 Pmpp=4.002 %cutin=0.1 %cutout=0.1
New PVSystem.PV_32 phases=1 bus1=G2100EK8800_N292347_sec_6.2 kV=0.24 kVA=6.48 irradiance=1 Pmpp=5.4 %cutin=0.1 %cutout=0.1
New PVSystem.PV_33 phases=1 bus1=G2100EK8800_N292347_sec_11.2 kV=0.24 kVA=6.36 irradiance=1 Pmpp=5.3 %cutin=0.1 %cutout=0.1
New PVSystem.PV_34 phases=1 bus1=G2100EN2200_N292457_sec_7.3 kV=0.24 kVA=3.12 irradiance=1 Pmpp=2.6 %cutin=0.1 %cutout=0.1
New PVSystem.PV_35 phases=3 conn = delta bus1=G2100FG1700_N292304_sec_9.1.2.3 kV=0.48 kVA=12.36 irradiance=1 Pmpp=10.3 %cutin=0.1 %cutout=0.1
New PVSystem.PV_36 phases=3 conn = delta bus1=G2100FH3200_N292302_sec_4.1.2.3 kV=0.48 kVA=30 irradiance=1 Pmpp=25 %cutin=0.1 %cutout=0.1
New PVSystem.PV_37 phases=1 bus1=G2100FI2200_N292320_sec_3.2 kV=0.24 kVA=6.36 irradiance=1 Pmpp=5.3 %cutin=0.1 %cutout=0.1
New PVSystem.PV_38 phases=3 conn = delta bus1=G2100FJ4400_N292396_sec_3.1.2.3 kV=0.48 kVA=16.2 irradiance=1 Pmpp=13.5 %cutin=0.1 %cutout=0.1
New PVSystem.PV_39 phases=1 bus1=G2100FL3500_N292410_sec_5.2 kV=0.24 kVA=4.08 irradiance=1 Pmpp=3.4 %cutin=0.1 %cutout=0.1
New PVSystem.PV_40 phases=1 bus1=G2100GM9700_N292423_sec_13.3 kV=0.24 kVA=0.48 irradiance=1 Pmpp=0.4 %cutin=0.1 %cutout=0.1
New PVSystem.PV_41 phases=1 bus1=G2100GM9700_N292423_sec_16.3 kV=0.24 kVA=4.8 irradiance=1 Pmpp=4 %cutin=0.1 %cutout=0.1
New PVSystem.PV_42 phases=1 bus1=G2100GM9700_N292423_sec_22.3 kV=0.24 kVA=3.96 irradiance=1 Pmpp=3.3 %cutin=0.1 %cutout=0.1
New PVSystem.PV_43 phases=1 bus1=G2100GM9700_N292423_sec_25.3 kV=0.24 kVA=1.44 irradiance=1 Pmpp=1.2 %cutin=0.1 %cutout=0.1
New PVSystem.PV_44 phases=1 bus1=G2100HM3200_N292420_sec_5.3 kV=0.24 kVA=2.4 irradiance=1 Pmpp=2 %cutin=0.1 %cutout=0.1
New PVSystem.PV_45 phases=1 bus1=G2100HN5600_N292453_sec_36.3 kV=0.24 kVA=1.32 irradiance=1 Pmpp=1.1 %cutin=0.1 %cutout=0.1
New PVSystem.PV_46 phases=1 bus1=G2100HN5600_N292453_sec_49.3 kV=0.24 kVA=3.12 irradiance=1 Pmpp=2.6 %cutin=0.1 %cutout=0.1
New PVSystem.PV_47 phases=1 bus1=G2100IL1000_N292412_sec_26.3 kV=0.24 kVA=0.48 irradiance=1 Pmpp=0.4 %cutin=0.1 %cutout=0.1
New PVSystem.PV_48 phases=1 bus1=G2100IN7700_N292438_sec_4.3 kV=0.24 kVA=2.04 irradiance=1 Pmpp=1.7 %cutin=0.1 %cutout=0.1
New PVSystem.PV_49 phases=1 bus1=G2100IN7700_N292438_sec_8.3 kV=0.24 kVA=3.12 irradiance=1 Pmpp=2.6 %cutin=0.1 %cutout=0.1
New PVSystem.PV_50 phases=1 bus1=G2100IN7700_N292438_sec_14.3 kV=0.24 kVA=1.92 irradiance=1 Pmpp=1.6 %cutin=0.1 %cutout=0.1
New PVSystem.PV_51 phases=1 bus1=G2100IN7700_N292438_sec_16.3 kV=0.24 kVA=3.24 irradiance=1 Pmpp=2.7 %cutin=0.1 %cutout=0.1
New PVSystem.PV_52 phases=1 bus1=G2100NM6600_N300513_sec_4.1 kV=0.24 kVA=4.44 irradiance=1 Pmpp=3.7 %cutin=0.1 %cutout=0.1
New PVSystem.PV_53 phases=1 bus1=G2100PN4000_N300544_sec_2.1 kV=0.24 kVA=3.12 irradiance=1 Pmpp=2.6 %cutin=0.1 %cutout=0.1
New PVSystem.PV_54 phases=1 bus1=G2100QM7500_N300522_sec_4.3 kV=0.24 kVA=4.08 irradiance=1 Pmpp=3.4 %cutin=0.1 %cutout=0.1
New PVSystem.PV_55 phases=1 bus1=G2100QP2300_N300614_sec_6.1 kV=0.24 kVA=3.84 irradiance=1 Pmpp=3.2 %cutin=0.1 %cutout=0.1
New PVSystem.PV_56 phases=1 bus1=G2100RO6900_N312512_sec_1.3 kV=0.24 kVA=3.24 irradiance=1 Pmpp=2.7 %cutin=0.1 %cutout=0.1
New PVSystem.PV_57 phases=1 bus1=G2101AC8800_N283998_sec_3.2 kV=0.24 kVA=9 irradiance=1 Pmpp=7.5 %cutin=0.1 %cutout=0.1
New PVSystem.PV_58 phases=1 bus1=G2101BC7200_N283931_sec_14.1 kV=0.24 kVA=7.32 irradiance=1 Pmpp=6.1 %cutin=0.1 %cutout=0.1
New PVSystem.PV_59 phases=1 bus1=G2101BM0000_N284274_sec_3.1 kV=0.24 kVA=8.76 irradiance=1 Pmpp=7.3 %cutin=0.1 %cutout=0.1
New PVSystem.PV_60 phases=1 bus1=G2101CI0100_N284212_sec_2.1 kV=0.24 kVA=3.72 irradiance=1 Pmpp=3.1 %cutin=0.1 %cutout=0.1
New PVSystem.PV_61 phases=1 bus1=G2101CM7500_N284275_sec_2.1 kV=0.24 kVA=4.56 irradiance=1 Pmpp=3.8 %cutin=0.1 %cutout=0.1
New PVSystem.PV_62 phases=1 bus1=G2101DC0100_N283946_sec_8.1 kV=0.24 kVA=6.96 irradiance=1 Pmpp=5.8 %cutin=0.1 %cutout=0.1
New PVSystem.PV_63 phases=1 bus1=G2101ED9700_N292597_sec_7.1 kV=0.24 kVA=3 irradiance=1 Pmpp=2.5 %cutin=0.1 %cutout=0.1
New PVSystem.PV_64 phases=1 bus1=G2101EG5500_N292730_sec_2.2 kV=0.24 kVA=5.3488 irradiance=1 Pmpp=4.4573 %cutin=0.1 %cutout=0.1
New PVSystem.PV_65 phases=1 bus1=G2101FJ5700_N292783_sec_3.2 kV=0.24 kVA=7.1373 irradiance=1 Pmpp=5.9477 %cutin=0.1 %cutout=0.1
New PVSystem.PV_66 phases=3 conn = delta bus1=G2101GA6800_N292554_sec_6.1.2.3 kV=0.48 kVA=19.68 irradiance=1 Pmpp=16.4 %cutin=0.1 %cutout=0.1
New PVSystem.PV_67 phases=1 bus1=G2101GD6200_N292642_sec_15.1 kV=0.24 kVA=3.72 irradiance=1 Pmpp=3.1 %cutin=0.1 %cutout=0.1
New PVSystem.PV_68 phases=1 bus1=G2101HG3400_N1406188_sec_3.1 kV=0.24 kVA=4.2 irradiance=1 Pmpp=3.5 %cutin=0.1 %cutout=0.1
New PVSystem.PV_69 phases=1 bus1=G2101JA8400_N300634_sec_3.1 kV=0.24 kVA=12 irradiance=1 Pmpp=10 %cutin=0.1 %cutout=0.1
New PVSystem.PV_70 phases=1 bus1=G2101KA2300_N300631_sec_2.1 kV=0.24 kVA=3.96 irradiance=1 Pmpp=3.3 %cutin=0.1 %cutout=0.1
New PVSystem.PV_71 phases=1 bus1=G2101KA6200_N300623_sec_18.1 kV=0.24 kVA=1.68 irradiance=1 Pmpp=1.4 %cutin=0.1 %cutout=0.1
New PVSystem.PV_72 phases=1 bus1=G2101OA1800_N300620_sec_4.3 kV=0.24 kVA=6.36 irradiance=1 Pmpp=5.3 %cutin=0.1 %cutout=0.1
New PVSystem.PV_73 phases=1 bus1=G2101OB6900_N300737_sec_4.3 kV=0.24 kVA=3.36 irradiance=1 Pmpp=2.8 %cutin=0.1 %cutout=0.1
New PVSystem.PV_74 phases=1 bus1=G2101SA6800_N312536_sec_10.2 kV=0.24 kVA=11.52 irradiance=1 Pmpp=9.6 %cutin=0.1 %cutout=0.1
New PVSystem.PV_75 phases=1 bus1=G2101SB2000_N312551_sec_1.1 kV=0.24 kVA=8.76 irradiance=1 Pmpp=7.3 %cutin=0.1 %cutout=0.1
New PVSystem.PV_76 phases=1 bus1=G2102AG6500_N284433_sec_1.1 kV=0.24 kVA=9.5999 irradiance=1 Pmpp=7.9999 %cutin=0.1 %cutout=0.1
New PVSystem.PV_77 phases=1 bus1=G2102CC0600_N284343_sec_2.1 kV=0.24 kVA=8.9451 irradiance=1 Pmpp=7.4543 %cutin=0.1 %cutout=0.1
New PVSystem.PV_78 phases=1 bus1=G2102CF4600_N284377_sec_3.1 kV=0.24 kVA=4.0247 irradiance=1 Pmpp=3.3539 %cutin=0.1 %cutout=0.1
New PVSystem.PV_79 phases=1 bus1=G2000TJ2700_N274103_sec_1.3 kV=0.24 kVA=6.36 irradiance=1 Pmpp=5.3 %cutin=0.1 %cutout=0.1
New PVSystem.PV_80 phases=1 bus1=G2000UJ6500_N283747_sec_6.2 kV=0.24 kVA=7.3362 irradiance=1 Pmpp=6.1135 %cutin=0.1 %cutout=0.1
New PVSystem.PV_81 phases=1 bus1=G2000VH9500_N283675_sec_1.2 kV=0.24 kVA=10.8 irradiance=1 Pmpp=9 %cutin=0.1 %cutout=0.1
New PVSystem.PV_82 phases=1 bus1=G2000XG5800_N283612_sec_2.3 kV=0.24 kVA=3.96 irradiance=1 Pmpp=3.3 %cutin=0.1 %cutout=0.1
New PVSystem.PV_83 phases=1 bus1=G2000XL8000_N283769_sec_4.1 kV=0.24 kVA=3.24 irradiance=1 Pmpp=2.7 %cutin=0.1 %cutout=0.1
New PVSystem.PV_84 phases=1 bus1=G2000XO7000_N283918_sec_4.3 kV=0.24 kVA=2.04 irradiance=1 Pmpp=1.7 %cutin=0.1 %cutout=0.1
New PVSystem.PV_85 phases=1 bus1=G2000YI1900_N283701_sec_2.1 kV=0.24 kVA=6.12 irradiance=1 Pmpp=5.1 %cutin=0.1 %cutout=0.1
New PVSystem.PV_86 phases=1 bus1=G2001RL0800_N274521_sec_5.2 kV=0.24 kVA=9.5325 irradiance=1 Pmpp=7.9437 %cutin=0.1 %cutout=0.1
New PVSystem.PV_87 phases=1 bus1=G2001SA7400_N274224_sec_3.3 kV=0.24 kVA=4.32 irradiance=1 Pmpp=3.6 %cutin=0.1 %cutout=0.1
New PVSystem.PV_88 phases=1 bus1=G2001SI2800_N274447_sec_2.1 kV=0.24 kVA=5.76 irradiance=1 Pmpp=4.8 %cutin=0.1 %cutout=0.1
New PVSystem.PV_89 phases=1 bus1=G2001TC3700_N274281_sec_1.3 kV=0.24 kVA=6.24 irradiance=1 Pmpp=5.2 %cutin=0.1 %cutout=0.1
New PVSystem.PV_90 phases=1 bus1=G2001TD3700_N274305_sec_7.3 kV=0.24 kVA=5.64 irradiance=1 Pmpp=4.7 %cutin=0.1 %cutout=0.1
New PVSystem.PV_91 phases=1 bus1=G2001UB2100_N283965_sec_3.3 kV=0.24 kVA=4.92 irradiance=1 Pmpp=4.1 %cutin=0.1 %cutout=0.1
New PVSystem.PV_92 phases=1 bus1=G2001WA2400_N283917_sec_5.3 kV=0.24 kVA=5.16 irradiance=1 Pmpp=4.3 %cutin=0.1 %cutout=0.1
New PVSystem.PV_93 phases=1 bus1=G2001WE0200_N284057_sec_5.3 kV=0.24 kVA=4.92 irradiance=1 Pmpp=4.1 %cutin=0.1 %cutout=0.1
New PVSystem.PV_94 phases=1 bus1=G2001WG9900_N284129_sec_2.3 kV=0.24 kVA=0.48 irradiance=1 Pmpp=0.4 %cutin=0.1 %cutout=0.1
New PVSystem.PV_95 phases=1 bus1=G2001XC7500_N283961_sec_2.3 kV=0.24 kVA=4.32 irradiance=1 Pmpp=3.6 %cutin=0.1 %cutout=0.1
New PVSystem.PV_96 phases=1 bus1=G2001XF9200_N284087_sec_3.3 kV=0.24 kVA=3.96 irradiance=1 Pmpp=3.3 %cutin=0.1 %cutout=0.1
New PVSystem.PV_97 phases=1 bus1=G2100AH8200_N283618_sec_6.3 kV=0.24 kVA=5.64 irradiance=1 Pmpp=4.7 %cutin=0.1 %cutout=0.1
New PVSystem.PV_98 phases=1 bus1=G2100AM2200_N283815_sec_2.1 kV=0.24 kVA=4.56 irradiance=1 Pmpp=3.8 %cutin=0.1 %cutout=0.1
New PVSystem.PV_99 phases=1 bus1=G2100AM6300_N283820_sec_1.1 kV=0.24 kVA=6.96 irradiance=1 Pmpp=5.8 %cutin=0.1 %cutout=0.1
New PVSystem.PV_100 phases=1 bus1=G2100CM0100_N283805_sec_2.1 kV=0.24 kVA=6.12 irradiance=1 Pmpp=5.1 %cutin=0.1 %cutout=0.1
New PVSystem.PV_101 phases=1 bus1=G2100DL9800_N283744_sec_6.2 kV=0.24 kVA=4.4447 irradiance=1 Pmpp=3.7039 %cutin=0.1 %cutout=0.1
New PVSystem.PV_102 phases=1 bus1=G2100DN4800_N283861_sec_1.3 kV=0.24 kVA=1.8 irradiance=1 Pmpp=1.5 %cutin=0.1 %cutout=0.1
New PVSystem.PV_103 phases=1 bus1=G2100DN4800_N283861_sec_30.3 kV=0.24 kVA=2.64 irradiance=1 Pmpp=2.2 %cutin=0.1 %cutout=0.1
New PVSystem.PV_104 phases=1 bus1=G2100DN4800_N283861_sec_41.3 kV=0.24 kVA=2.04 irradiance=1 Pmpp=1.7 %cutin=0.1 %cutout=0.1
New PVSystem.PV_105 phases=1 bus1=G2100DN4800_N283861_sec_49.3 kV=0.24 kVA=1.7942 irradiance=1 Pmpp=1.4951 %cutin=0.1 %cutout=0.1
New PVSystem.PV_106 phases=1 bus1=G2100EK1100_N292334_sec_6.2 kV=0.24 kVA=2.76 irradiance=1 Pmpp=2.3 %cutin=0.1 %cutout=0.1
New PVSystem.PV_107 phases=1 bus1=G2100EK8800_N292347_sec_10.2 kV=0.24 kVA=6.6036 irradiance=1 Pmpp=5.503 %cutin=0.1 %cutout=0.1
New PVSystem.PV_108 phases=1 bus1=G2100EN2200_N292457_sec_11.3 kV=0.24 kVA=3 irradiance=1 Pmpp=2.5 %cutin=0.1 %cutout=0.1
New PVSystem.PV_109 phases=1 bus1=G2100EN2200_N292457_sec_23.3 kV=0.24 kVA=2.76 irradiance=1 Pmpp=2.3 %cutin=0.1 %cutout=0.1
New PVSystem.PV_110 phases=3 conn = delta bus1=G2100FF2000_N292242_sec_2.1.2.3 kV=0.48 kVA=12 irradiance=1 Pmpp=10 %cutin=0.1 %cutout=0.1
New PVSystem.PV_111 phases=1 bus1=G2100FL3500_N292410_sec_1.2 kV=0.24 kVA=3.84 irradiance=1 Pmpp=3.2 %cutin=0.1 %cutout=0.1
New PVSystem.PV_112 phases=1 bus1=G2100FL3500_N292410_sec_2.2 kV=0.24 kVA=13.92 irradiance=1 Pmpp=11.6 %cutin=0.1 %cutout=0.1
New PVSystem.PV_113 phases=1 bus1=G2100GM9700_N292423_sec_3.3 kV=0.24 kVA=1.2 irradiance=1 Pmpp=1 %cutin=0.1 %cutout=0.1
New PVSystem.PV_114 phases=1 bus1=G2100GM9700_N292423_sec_15.3 kV=0.24 kVA=0.48 irradiance=1 Pmpp=0.4 %cutin=0.1 %cutout=0.1
New PVSystem.PV_115 phases=1 bus1=G2100GM9700_N292423_sec_19.3 kV=0.24 kVA=2.64 irradiance=1 Pmpp=2.2 %cutin=0.1 %cutout=0.1
New PVSystem.PV_116 phases=1 bus1=G2100GN0400_N292471_sec_16.1 kV=0.24 kVA=2.52 irradiance=1 Pmpp=2.1 %cutin=0.1 %cutout=0.1
New PVSystem.PV_117 phases=1 bus1=G2100HM3200_N292420_sec_6.3 kV=0.24 kVA=0.36 irradiance=1 Pmpp=0.3 %cutin=0.1 %cutout=0.1
New PVSystem.PV_118 phases=3 conn = delta bus1=G2100HN2600_N292488_sec_9.1.2.3 kV=0.48 kVA=3.24 irradiance=1 Pmpp=2.7 %cutin=0.1 %cutout=0.1
New PVSystem.PV_119 phases=1 bus1=G2100HN5600_N292453_sec_6.3 kV=0.24 kVA=2.16 irradiance=1 Pmpp=1.8 %cutin=0.1 %cutout=0.1
New PVSystem.PV_120 phases=1 bus1=G2100HN5600_N292453_sec_23.3 kV=0.24 kVA=2.52 irradiance=1 Pmpp=2.1 %cutin=0.1 %cutout=0.1
New PVSystem.PV_121 phases=1 bus1=G2100IL1000_N292412_sec_34.3 kV=0.24 kVA=3.36 irradiance=1 Pmpp=2.8 %cutin=0.1 %cutout=0.1
New PVSystem.PV_122 phases=1 bus1=G2100IL1000_N292412_sec_38.3 kV=0.24 kVA=4.92 irradiance=1 Pmpp=4.1 %cutin=0.1 %cutout=0.1
New PVSystem.PV_123 phases=1 bus1=G2100IN7700_N292438_sec_12.3 kV=0.24 kVA=1.92 irradiance=1 Pmpp=1.6 %cutin=0.1 %cutout=0.1
New PVSystem.PV_124 phases=1 bus1=G2100IN7700_N292438_sec_29.3 kV=0.24 kVA=2.76 irradiance=1 Pmpp=2.3 %cutin=0.1 %cutout=0.1
New PVSystem.PV_125 phases=3 conn = delta bus1=G2100KO2700_N300582_sec_3.1.2.3 kV=0.48 kVA=9.84 irradiance=1 Pmpp=8.2 %cutin=0.1 %cutout=0.1
New PVSystem.PV_126 phases=1 bus1=G2100NJ7400_N300463_sec_1.1 kV=0.24 kVA=15.5971 irradiance=1 Pmpp=12.9976 %cutin=0.1 %cutout=0.1
New PVSystem.PV_127 phases=1 bus1=G2100NM7500_N300513_sec_7.1 kV=0.24 kVA=2.88 irradiance=1 Pmpp=2.4 %cutin=0.1 %cutout=0.1
New PVSystem.PV_128 phases=1 bus1=G2100OO0200_N300573_sec_6.1 kV=0.24 kVA=3.72 irradiance=1 Pmpp=3.1 %cutin=0.1 %cutout=0.1
New PVSystem.PV_129 phases=1 bus1=G2100PN6500_N300562_sec_1.1 kV=0.24 kVA=3.84 irradiance=1 Pmpp=3.2 %cutin=0.1 %cutout=0.1
New PVSystem.PV_130 phases=1 bus1=G2100QM2700_N300529_sec_6.2 kV=0.24 kVA=6.12 irradiance=1 Pmpp=5.1 %cutin=0.1 %cutout=0.1
New PVSystem.PV_131 phases=1 bus1=G2100SO3700_N312462_sec_7.3 kV=0.24 kVA=2.76 irradiance=1 Pmpp=2.3 %cutin=0.1 %cutout=0.1
New PVSystem.PV_132 phases=1 bus1=G2101BB3500_N283890_sec_7.1 kV=0.24 kVA=4.2 irradiance=1 Pmpp=3.5 %cutin=0.1 %cutout=0.1
New PVSystem.PV_133 phases=1 bus1=G2101BM6500_N284282_sec_2.1 kV=0.24 kVA=5.52 irradiance=1 Pmpp=4.6 %cutin=0.1 %cutout=0.1
New PVSystem.PV_134 phases=1 bus1=G2101DF4700_N284102_sec_3.2 kV=0.24 kVA=3.72 irradiance=1 Pmpp=3.1 %cutin=0.1 %cutout=0.1
New PVSystem.PV_135 phases=1 bus1=G2101EC1500_N292602_sec_3.1 kV=0.24 kVA=3.96 irradiance=1 Pmpp=3.3 %cutin=0.1 %cutout=0.1
New PVSystem.PV_136 phases=1 bus1=G2101EC8400_N292647_sec_1.1 kV=0.24 kVA=1.9962 irradiance=1 Pmpp=1.6635 %cutin=0.1 %cutout=0.1
New PVSystem.PV_137 phases=1 bus1=G2101EG7000_N292703_sec_3.2 kV=0.24 kVA=8.9029 irradiance=1 Pmpp=7.4191 %cutin=0.1 %cutout=0.1
New PVSystem.PV_138 phases=1 bus1=G2101FC9500_N292618_sec_15.1 kV=0.24 kVA=3.72 irradiance=1 Pmpp=3.1 %cutin=0.1 %cutout=0.1
New PVSystem.PV_139 phases=1 bus1=G2101FL7200_N292813_sec_3.2 kV=0.24 kVA=12.12 irradiance=1 Pmpp=10.1 %cutin=0.1 %cutout=0.1
New PVSystem.PV_140 phases=1 bus1=G2101GC3200_N292623_sec_15.1 kV=0.24 kVA=4.08 irradiance=1 Pmpp=3.4 %cutin=0.1 %cutout=0.1
New PVSystem.PV_141 phases=1 bus1=G2101GD1300_N292637_sec_13.1 kV=0.24 kVA=1.92 irradiance=1 Pmpp=1.6 %cutin=0.1 %cutout=0.1
New PVSystem.PV_142 phases=1 bus1=G2101GD6200_N292642_sec_13.1 kV=0.24 kVA=3.12 irradiance=1 Pmpp=2.6 %cutin=0.1 %cutout=0.1
New PVSystem.PV_143 phases=1 bus1=G2101GD9500_N292651_sec_9.1 kV=0.24 kVA=3.48 irradiance=1 Pmpp=2.9 %cutin=0.1 %cutout=0.1
New PVSystem.PV_144 phases=1 bus1=G2101GN5000_N292870_sec_2.2 kV=0.24 kVA=3.84 irradiance=1 Pmpp=3.2 %cutin=0.1 %cutout=0.1
New PVSystem.PV_145 phases=1 bus1=G2101HB3500_N292585_sec_5.1 kV=0.24 kVA=7.44 irradiance=1 Pmpp=6.2 %cutin=0.1 %cutout=0.1
New PVSystem.PV_146 phases=1 bus1=G2101HB6800_N292600_sec_4.1 kV=0.24 kVA=3 irradiance=1 Pmpp=2.5 %cutin=0.1 %cutout=0.1
New PVSystem.PV_147 phases=1 bus1=G2101HL9000_N292832_sec_2.3 kV=0.24 kVA=7.32 irradiance=1 Pmpp=6.1 %cutin=0.1 %cutout=0.1
New PVSystem.PV_148 phases=1 bus1=G2101JF1200_N292702_sec_3.1 kV=0.24 kVA=3.48 irradiance=1 Pmpp=2.9 %cutin=0.1 %cutout=0.1
New PVSystem.PV_149 phases=1 bus1=G2101KA3900_N300679_sec_19.1 kV=0.24 kVA=3.24 irradiance=1 Pmpp=2.7 %cutin=0.1 %cutout=0.1
New PVSystem.PV_150 phases=1 bus1=G2101KA6200_N300623_sec_14.1 kV=0.24 kVA=3.84 irradiance=1 Pmpp=3.2 %cutin=0.1 %cutout=0.1
New PVSystem.PV_151 phases=1 bus1=G2101KA6200_N300623_sec_19.1 kV=0.24 kVA=3.12 irradiance=1 Pmpp=2.6 %cutin=0.1 %cutout=0.1
New PVSystem.PV_152 phases=1 bus1=G2101PB2500_N300719_sec_4.3 kV=0.24 kVA=1.56 irradiance=1 Pmpp=1.3 %cutin=0.1 %cutout=0.1
New PVSystem.PV_153 phases=1 bus1=G2101PB2500_N300719_sec_9.3 kV=0.24 kVA=2.4 irradiance=1 Pmpp=2 %cutin=0.1 %cutout=0.1
New PVSystem.PV_154 phases=1 bus1=G2101QC1100_N300736_sec_1.3 kV=0.24 kVA=2.16 irradiance=1 Pmpp=1.8 %cutin=0.1 %cutout=0.1
New PVSystem.PV_155 phases=1 bus1=G2101SB1800_N312602_sec_6.1 kV=0.24 kVA=3.84 irradiance=1 Pmpp=3.2 %cutin=0.1 %cutout=0.1
New PVSystem.PV_156 phases=1 bus1=G2000UI6400_N283679_sec_1.3 kV=0.24 kVA=3.12 irradiance=1 Pmpp=2.6 %cutin=0.1 %cutout=0.1
New PVSystem.PV_157 phases=1 bus1=G2000UK1100_N283753_sec_5.3 kV=0.24 kVA=9 irradiance=1 Pmpp=7.5 %cutin=0.1 %cutout=0.1
New PVSystem.PV_158 phases=1 bus1=G2000XJ9800_N283726_sec_2.2 kV=0.24 kVA=2.76 irradiance=1 Pmpp=2.3 %cutin=0.1 %cutout=0.1
New PVSystem.PV_159 phases=1 bus1=G2000XO7000_N283918_sec_5.3 kV=0.24 kVA=4.92 irradiance=1 Pmpp=4.1 %cutin=0.1 %cutout=0.1
New PVSystem.PV_160 phases=1 bus1=G2001QO2100_N274563_sec_1.2 kV=0.24 kVA=12.6 irradiance=1 Pmpp=10.5 %cutin=0.1 %cutout=0.1
New PVSystem.PV_161 phases=1 bus1=G2001RB7800_N274248_sec_4.3 kV=0.24 kVA=6.36 irradiance=1 Pmpp=5.3 %cutin=0.1 %cutout=0.1
New PVSystem.PV_162 phases=1 bus1=G2001RJ3400_N274458_sec_2.2 kV=0.24 kVA=7.5387 irradiance=1 Pmpp=6.2823 %cutin=0.1 %cutout=0.1
New PVSystem.PV_163 phases=1 bus1=G2001RL0800_N274521_sec_6.2 kV=0.24 kVA=6.84 irradiance=1 Pmpp=5.7 %cutin=0.1 %cutout=0.1
New PVSystem.PV_164 phases=1 bus1=G2001SL0100_N274540_sec_1.2 kV=0.24 kVA=11.88 irradiance=1 Pmpp=9.9 %cutin=0.1 %cutout=0.1
New PVSystem.PV_165 phases=1 bus1=G2001TE3800_N274352_sec_4.3 kV=0.24 kVA=5.04 irradiance=1 Pmpp=4.2 %cutin=0.1 %cutout=0.1
New PVSystem.PV_166 phases=1 bus1=G2001TH0100_N274396_sec_2.2 kV=0.24 kVA=10.56 irradiance=1 Pmpp=8.8 %cutin=0.1 %cutout=0.1
New PVSystem.PV_167 phases=1 bus1=G2001TI4000_N284133_sec_3.2 kV=0.24 kVA=6.72 irradiance=1 Pmpp=5.6 %cutin=0.1 %cutout=0.1
New PVSystem.PV_168 phases=1 bus1=G2001UB4400_N283904_sec_8.3 kV=0.24 kVA=3 irradiance=1 Pmpp=2.5 %cutin=0.1 %cutout=0.1
New PVSystem.PV_169 phases=1 bus1=G2001VC8200_N283967_sec_6.3 kV=0.24 kVA=3.24 irradiance=1 Pmpp=2.7 %cutin=0.1 %cutout=0.1
New PVSystem.PV_170 phases=1 bus1=G2001WC7300_N283986_sec_6.3 kV=0.24 kVA=0 irradiance=1 Pmpp=0 %cutin=0.1 %cutout=0.1
New PVSystem.PV_171 phases=1 bus1=G2001WD5300_N284012_sec_2.3 kV=0.24 kVA=3 irradiance=1 Pmpp=2.5 %cutin=0.1 %cutout=0.1
New PVSystem.PV_172 phases=1 bus1=G2001XI4700_N284192_sec_3.3 kV=0.24 kVA=3.24 irradiance=1 Pmpp=2.7 %cutin=0.1 %cutout=0.1
New PVSystem.PV_173 phases=1 bus1=G2100AF5900_N283577_sec_4.3 kV=0.24 kVA=5.28 irradiance=1 Pmpp=4.4 %cutin=0.1 %cutout=0.1
New PVSystem.PV_174 phases=1 bus1=G2100AL3200_N283770_sec_3.1 kV=0.24 kVA=3.84 irradiance=1 Pmpp=3.2 %cutin=0.1 %cutout=0.1
New PVSystem.PV_175 phases=1 bus1=G2100AM8100_N283813_sec_2.1 kV=0.24 kVA=3.24 irradiance=1 Pmpp=2.7 %cutin=0.1 %cutout=0.1
New PVSystem.PV_176 phases=1 bus1=G2100BH6100_N283623_sec_6.3 kV=0.24 kVA=5.6597 irradiance=1 Pmpp=4.7165 %cutin=0.1 %cutout=0.1
New PVSystem.PV_177 phases=1 bus1=G2100CH1800_N1385522_sec_1.3 kV=0.24 kVA=1.92 irradiance=1 Pmpp=1.6 %cutin=0.1 %cutout=0.1
New PVSystem.PV_178 phases=1 bus1=G2100DG1300_N283601_sec_3.3 kV=0.24 kVA=2.28 irradiance=1 Pmpp=1.9 %cutin=0.1 %cutout=0.1
New PVSystem.PV_179 phases=1 bus1=G2100DG1300_N283601_sec_15.3 kV=0.24 kVA=3.24 irradiance=1 Pmpp=2.7 %cutin=0.1 %cutout=0.1
New PVSystem.PV_180 phases=1 bus1=G2100DG3700_N283614_sec_15.3 kV=0.24 kVA=3 irradiance=1 Pmpp=2.5 %cutin=0.1 %cutout=0.1
New PVSystem.PV_181 phases=1 bus1=G2100DM6300_N283816_sec_4.3 kV=0.24 kVA=2.16 irradiance=1 Pmpp=1.8 %cutin=0.1 %cutout=0.1
New PVSystem.PV_182 phases=1 bus1=G2100DN4800_N283861_sec_11.3 kV=0.24 kVA=1.2 irradiance=1 Pmpp=1 %cutin=0.1 %cutout=0.1
New PVSystem.PV_183 phases=1 bus1=G2100DN4800_N283861_sec_54.3 kV=0.24 kVA=2.76 irradiance=1 Pmpp=2.3 %cutin=0.1 %cutout=0.1
New PVSystem.PV_184 phases=1 bus1=G2100DN4800_N283861_sec_56.3 kV=0.24 kVA=1.68 irradiance=1 Pmpp=1.4 %cutin=0.1 %cutout=0.1
New PVSystem.PV_185 phases=1 bus1=G2100EK1100_N292334_sec_1.2 kV=0.24 kVA=12 irradiance=1 Pmpp=10 %cutin=0.1 %cutout=0.1
New PVSystem.PV_186 phases=1 bus1=G2100EM1500_N292428_sec_5.3 kV=0.24 kVA=2.28 irradiance=1 Pmpp=1.9 %cutin=0.1 %cutout=0.1
New PVSystem.PV_187 phases=1 bus1=G2100EM2500_N292390_sec_4.2 kV=0.24 kVA=10.4485 irradiance=1 Pmpp=8.7071 %cutin=0.1 %cutout=0.1
New PVSystem.PV_188 phases=1 bus1=G2100EN2200_N292457_sec_9.3 kV=0.24 kVA=2.88 irradiance=1 Pmpp=2.4 %cutin=0.1 %cutout=0.1
New PVSystem.PV_189 phases=1 bus1=G2100EN8600_N292479_sec_18.3 kV=0.24 kVA=1.32 irradiance=1 Pmpp=1.1 %cutin=0.1 %cutout=0.1
New PVSystem.PV_190 phases=1 bus1=G2100EO1300_N292510_sec_9.3 kV=0.24 kVA=2.16 irradiance=1 Pmpp=1.8 %cutin=0.1 %cutout=0.1
New PVSystem.PV_191 phases=1 bus1=G2100EO2100_N292498_sec_15.3 kV=0.24 kVA=2.16 irradiance=1 Pmpp=1.8 %cutin=0.1 %cutout=0.1
New PVSystem.PV_192 phases=3 conn = delta bus1=G2100FE2600_N292234_sec_5.1.2.3 kV=0.48 kVA=37.32 irradiance=1 Pmpp=31.1 %cutin=0.1 %cutout=0.1
New PVSystem.PV_193 phases=3 conn = delta bus1=G2100GF1700_N292259_sec_1.1.2.3 kV=0.48 kVA=165.6 irradiance=1 Pmpp=138 %cutin=0.1 %cutout=0.1
New PVSystem.PV_194 phases=3 conn = delta bus1=G2100GI5400_N292325_sec_5.1.2.3 kV=0.48 kVA=6.48 irradiance=1 Pmpp=5.4 %cutin=0.1 %cutout=0.1
New PVSystem.PV_195 phases=3 conn = delta bus1=G2100GM5300_N292446_sec_2.1.2.3 kV=0.48 kVA=19.08 irradiance=1 Pmpp=15.9 %cutin=0.1 %cutout=0.1
New PVSystem.PV_196 phases=1 bus1=G2100HM9900_N292433_sec_27.3 kV=0.24 kVA=3.12 irradiance=1 Pmpp=2.6 %cutin=0.1 %cutout=0.1
New PVSystem.PV_197 phases=1 bus1=G2100HN5600_N292453_sec_8.3 kV=0.24 kVA=3.12 irradiance=1 Pmpp=2.6 %cutin=0.1 %cutout=0.1
New PVSystem.PV_198 phases=1 bus1=G2100HN5600_N292453_sec_60.3 kV=0.24 kVA=2.76 irradiance=1 Pmpp=2.3 %cutin=0.1 %cutout=0.1
New PVSystem.PV_199 phases=1 bus1=G2100IL1000_N292412_sec_24.3 kV=0.24 kVA=2.4 irradiance=1 Pmpp=2 %cutin=0.1 %cutout=0.1
New PVSystem.PV_200 phases=1 bus1=G2100IN2700_N292475_sec_21.3 kV=0.24 kVA=4.0235 irradiance=1 Pmpp=3.3529 %cutin=0.1 %cutout=0.1
...
